/*--------------------------------*- C++ -*----------------------------------*\
| ========= | |
| \\ / F ield | OpenFOAM: The Open Source CFD Toolbox |
| \\ / O peration | Version: 2.4.0 |
| \\ / A nd | Web: www.OpenFOAM.org |
| \\/ M anipulation | |
\*---------------------------------------------------------------------------*/



FoamFile
{
 version 2.0;
 format ascii;
 class dictionary;
 location "system";
 object probes;
}


type probes;
libs ("libsampling.so");
writeControl timeStep;
writeInterval 1;

fields (
	T
);

probeLocations (
	( -0.050001000000000004 0.0  0 ) // theta value 0.0
( -0.0500009238441413 8.726816362328135e-05  0 ) // theta value 0.0017453292519943296
( -0.05000069537679718 0.00017453606141260185  0 ) // theta value 0.003490658503988659
( -0.05000031459866359 0.00026180342753481047  0 ) // theta value 0.005235987755982989
( -0.04999978151090045 0.0003490699961583756  0 ) // theta value 0.006981317007977318
( -0.04999909611513163 0.00043633550145419516  0 ) // theta value 0.008726646259971648
( -0.049998258413444976 0.000523599677596406  0 ) // theta value 0.010471975511965978
( -0.04999726840839226 0.0006108622587631938  0 ) // theta value 0.012217304763960308
( -0.04999612610298922 0.0006981229791376028  0 ) // theta value 0.013962634015954637
( -0.049994831500715514 0.0007853815729083457  0 ) // theta value 0.015707963267948967
( -0.049993384605514724 0.0008726377742706129  0 ) // theta value 0.017453292519943295
( -0.04999178542179434 0.0009598913174268832  0 ) // theta value 0.019198621771937627
( -0.04999003395442576 0.0010471419365877315  0 ) // theta value 0.020943951023931956
( -0.04998813020874424 0.0011343893659726408  0 ) // theta value 0.022689280275926284
( -0.04998607419054894 0.0012216333398108105  0 ) // theta value 0.024434609527920616
( -0.04998386590610284 0.0013088735923419655  0 ) // theta value 0.026179938779914945
( -0.049981505362132764 0.0013961098578171678  0 ) // theta value 0.027925268031909273
( -0.04997899256582933 0.0014833418704996231  0 ) // theta value 0.029670597283903605
( -0.04997632752484695 0.0015705693646654929  0 ) // theta value 0.031415926535897934
( -0.04997351024730381 0.0016577920746047028  0 ) // theta value 0.033161255787892266
( -0.04997054074178181 0.001745009734621751  0 ) // theta value 0.03490658503988659
( -0.04996741901732659 0.0018322220790365205  0 ) // theta value 0.03665191429188092
( -0.04996414508344747 0.0019194288421850848  0 ) // theta value 0.038397243543875255
( -0.049960718950117416 0.0020066297584205198  0 ) // theta value 0.04014257279586959
( -0.049957140627773025 0.002093824562113711  0 ) // theta value 0.04188790204786391
( -0.049953410127314475 0.0021810129876541655  0 ) // theta value 0.04363323129985824
( -0.04994952746010553 0.0022681947694508185  0 ) // theta value 0.04537856055185257
( -0.04994549263797347 0.002355369641932843  0 ) // theta value 0.0471238898038469
( -0.04994130567320905 0.002442537339550459  0 ) // theta value 0.04886921905584123
( -0.0499369665785665 0.002529697596775743  0 ) // theta value 0.050614548307835565
( -0.04993247536726345 0.002616850148103435  0 ) // theta value 0.05235987755982989
( -0.04992783205298092 0.0027039947280517495  0 ) // theta value 0.054105206811824215
( -0.04992303664986324 0.0027911310711631835  0 ) // theta value 0.05585053606381855
( -0.04991808917251803 0.002878258912005324  0 ) // theta value 0.05759586531581288
( -0.049912989636016196 0.0029653779851716577  0 ) // theta value 0.05934119456780721
( -0.04990773805589177 0.0030524880252823785  0 ) // theta value 0.061086523819801536
( -0.04990233444814201 0.0031395887669851985  0 ) // theta value 0.06283185307179587
( -0.049896778829227224 0.0032266799449561525  0 ) // theta value 0.0645771823237902
( -0.049891071216070795 0.003313761293900408  0 ) // theta value 0.06632251157578453
( -0.049885211626059106 0.0034008325485530744  0 ) // theta value 0.06806784082777886
( -0.049879200077041476 0.0034878934436800096  0 ) // theta value 0.06981317007977318
( -0.04987303658733013 0.0035749437140786293  0 ) // theta value 0.07155849933176751
( -0.04986672117570013 0.003661983094578712  0 ) // theta value 0.07330382858376185
( -0.049860253861389314 0.0037490113200432116  0 ) // theta value 0.07504915783575616
( -0.04985363466409824 0.0038360281253690593  0 ) // theta value 0.07679448708775051
( -0.049846863603990134 0.003923033245487976  0 ) // theta value 0.07853981633974483
( -0.049839940701690816 0.004010026415367276  0 ) // theta value 0.08028514559173917
( -0.04983286597828865 0.004097007370010677  0 ) // theta value 0.08203047484373349
( -0.04982563945533447 0.004183975844459107  0 ) // theta value 0.08377580409572782
( -0.04981826115484152 0.004270931573791511  0 ) // theta value 0.08552113334772216
( -0.049810731099285376 0.004357874293125656  0 ) // theta value 0.08726646259971647
( -0.04980304931160389 0.004444803737618943  0 ) // theta value 0.08901179185171082
( -0.049795215815197136 0.004531719642469206  0 ) // theta value 0.09075712110370514
( -0.049787230633927294 0.004618621742915527  0 ) // theta value 0.09250245035569948
( -0.0497790937921186 0.004705509774239035  0 ) // theta value 0.0942477796076938
( -0.04977080531455731 0.00479238347176372  0 ) // theta value 0.09599310885968812
( -0.049762365226491544 0.004879242570857234  0 ) // theta value 0.09773843811168247
( -0.04975377355363128 0.004966086806931695  0 ) // theta value 0.09948376736367678
( -0.04974503032214824 0.005052915915444501  0 ) // theta value 0.10122909661567113
( -0.049736135558675836 0.0051397296318991285  0 ) // theta value 0.10297442586766545
( -0.049727089290309036 0.0052265276918459416  0 ) // theta value 0.10471975511965978
( -0.04971789154460437 0.005313309830882997  0 ) // theta value 0.10646508437165411
( -0.04970854234957975 0.005400075784656849  0 ) // theta value 0.10821041362364843
( -0.04969904173371444 0.005486825288863356  0 ) // theta value 0.10995574287564278
( -0.04968938972594898 0.00557355807924848  0 ) // theta value 0.1117010721276371
( -0.049679586355685056 0.005660273891609105  0 ) // theta value 0.11344640137963143
( -0.04966963165278543 0.005746972461793824  0 ) // theta value 0.11519173063162576
( -0.049659525647573845 0.005833653525703758  0 ) // theta value 0.11693705988362008
( -0.049649268370834956 0.005920316819293355  0 ) // theta value 0.11868238913561442
( -0.04963885985381421 0.00600696207857119  0 ) // theta value 0.12042771838760874
( -0.04962830012821774 0.006093589039600779  0 ) // theta value 0.12217304763960307
( -0.04961758922621232 0.006180197438501377  0 ) // theta value 0.1239183768915974
( -0.04960672718042521 0.006266787011448778  0 ) // theta value 0.12566370614359174
( -0.049595714023944075 0.006353357494676127  0 ) // theta value 0.12740903539558607
( -0.04958454979031691 0.006439908624474718  0 ) // theta value 0.1291543646475804
( -0.049573234513551896 0.0065264401371947995  0 ) // theta value 0.1308996938995747
( -0.04956176822811734 0.006612951769246381  0 ) // theta value 0.13264502315156906
( -0.04955015096894153 0.006699443257100021  0 ) // theta value 0.13439035240356337
( -0.049538382771412655 0.006785914337287655  0 ) // theta value 0.13613568165555773
( -0.04952646367137868 0.00687236474640337  0 ) // theta value 0.13788101090755203
( -0.049514393705147264 0.006958794221104232  0 ) // theta value 0.13962634015954636
( -0.049502172909485595 0.007045202498111071  0 ) // theta value 0.1413716694115407
( -0.04948980132162036 0.0071315893142092895  0 ) // theta value 0.14311699866353503
( -0.049477278979237545 0.007217954406249662  0 ) // theta value 0.14486232791552936
( -0.049464605920482387 0.007304297511149144  0 ) // theta value 0.1466076571675237
( -0.04945178218395921 0.007390618365891661  0 ) // theta value 0.14835298641951802
( -0.04943880780873134 0.007476916707528921  0 ) // theta value 0.15009831567151233
( -0.04942568283432099 0.007563192273181209  0 ) // theta value 0.1518436449235067
( -0.04941240730070909 0.0076494448000381885  0 ) // theta value 0.15358897417550102
( -0.04939898124833523 0.0077356740253597045  0 ) // theta value 0.15533430342749532
( -0.049385404718097485 0.007821879686476584  0 ) // theta value 0.15707963267948966
( -0.04937167775135232 0.007908061520791432  0 ) // theta value 0.158824961931484
( -0.04935780038991447 0.007994219265779437  0 ) // theta value 0.16057029118347835
( -0.049343772676056774 0.00808035265898916  0 ) // theta value 0.16231562043547265
( -0.04932959465251008 0.008166461438043355  0 ) // theta value 0.16406094968746698
( -0.04931526636246311 0.008252545340639744  0 ) // theta value 0.16580627893946132
( -0.049300787849562315 0.00833860410455183  0 ) // theta value 0.16755160819145565
( -0.04928615915791177 0.008424637467629696  0 ) // theta value 0.16929693744344998
( -0.04927138033207299 0.008510645167800795  0 ) // theta value 0.1710422666954443
( -0.049256451417064855 0.008596626943070758  0 ) // theta value 0.17278759594743864
( -0.049241372458363415 0.008682582531524183  0 ) // theta value 0.17453292519943295
( -0.049226143501901805 0.00876851167132545  0 ) // theta value 0.1762782544514273
( -0.04921076459407007 0.008854414100719486  0 ) // theta value 0.17802358370342164
( -0.04919523578171502 0.008940289558032598  0 ) // theta value 0.17976891295541594
( -0.049179557112140115 0.00902613778167325  0 ) // theta value 0.18151424220741028
( -0.0491637286331053 0.009111958510132866  0 ) // theta value 0.1832595714594046
( -0.049147750392826865 0.009197751481986623  0 ) // theta value 0.18500490071139897
( -0.04913162243997731 0.009283516435894246  0 ) // theta value 0.18675022996339327
( -0.04911534482368517 0.009369253110600818  0 ) // theta value 0.1884955592153876
( -0.04909891759353488 0.009454961244937556  0 ) // theta value 0.19024088846738194
( -0.04908234079956665 0.009540640577822617  0 ) // theta value 0.19198621771937624
( -0.049065614492276255 0.009626290848261899  0 ) // theta value 0.1937315469713706
( -0.04904873872261493 0.00971191179534982  0 ) // theta value 0.19547687622336493
( -0.0490317135419892 0.009797503158270129  0 ) // theta value 0.19722220547535926
( -0.049014539002260715 0.009883064676296687  0 ) // theta value 0.19896753472735357
( -0.04899721515574611 0.009968596088794277  0 ) // theta value 0.2007128639793479
( -0.0489797420552168 0.010054097135219382  0 ) // theta value 0.20245819323134226
( -0.048962119753898914 0.010139567555120983  0 ) // theta value 0.20420352248333656
( -0.048944348305473014 0.01022500708814136  0 ) // theta value 0.2059488517353309
( -0.04892642776407403 0.01031041547401688  0 ) // theta value 0.20769418098732523
( -0.04890835818429102 0.010395792452578786  0 ) // theta value 0.20943951023931956
( -0.04889013962116707 0.010481137763753996  0 ) // theta value 0.2111848394913139
( -0.04887177213019908 0.010566451147565891  0 ) // theta value 0.21293016874330822
( -0.04885325576733762 0.010651732344135105  0 ) // theta value 0.21467549799530256
( -0.04883459058898673 0.010736981093680329  0 ) // theta value 0.21642082724729686
( -0.04881577665200379 0.010822197136519083  0 ) // theta value 0.2181661564992912
( -0.04879681401369931 0.010907380213068526  0 ) // theta value 0.21991148575128555
( -0.04877770273183678 0.01099253006384623  0 ) // theta value 0.22165681500327988
( -0.048758442864632476 0.011077646429470985  0 ) // theta value 0.2234021442552742
( -0.04873903447075528 0.01116272905066358  0 ) // theta value 0.22514747350726852
( -0.04871947760932655 0.011247777668247595  0 ) // theta value 0.22689280275926285
( -0.04869977233991986 0.01133279202315019  0 ) // theta value 0.22863813201125718
( -0.04867991872256089 0.011417771856402898  0 ) // theta value 0.23038346126325152
( -0.048659916817727196 0.01150271690914241  0 ) // theta value 0.23212879051524585
( -0.04863976668634804 0.01158762692261136  0 ) // theta value 0.23387411976724015
( -0.04861946838980423 0.011672501638159126  0 ) // theta value 0.23561944901923448
( -0.048599021989927896 0.011757340797242605  0 ) // theta value 0.23736477827122884
( -0.04857842754900231 0.011842144141427001  0 ) // theta value 0.23911010752322318
( -0.04855768512976172 0.011926911412386623  0 ) // theta value 0.24085543677521748
( -0.04853679479539112 0.012011642351905666  0 ) // theta value 0.2426007660272118
( -0.0485157566095261 0.012096336701878986  0 ) // theta value 0.24434609527920614
( -0.04849457063625263 0.012180994204312914  0 ) // theta value 0.2460914245312005
( -0.04847323694010684 0.01226561460132601  0 ) // theta value 0.2478367537831948
( -0.04845175558607488 0.012350197635149869  0 ) // theta value 0.24958208303518914
( -0.04843012663959269 0.012434743048129906  0 ) // theta value 0.25132741228718347
( -0.048408350166545766 0.012519250582726127  0 ) // theta value 0.2530727415391778
( -0.048386426233269046 0.012603719981513927  0 ) // theta value 0.25481807079117214
( -0.04836435490654662 0.012688150987184869  0 ) // theta value 0.25656340004316647
( -0.04834213625361158 0.012772543342547465  0 ) // theta value 0.2583087292951608
( -0.04831977034214579 0.012856896790527967  0 ) // theta value 0.26005405854715513
( -0.04829725724027971 0.01294121107417114  0 ) // theta value 0.2617993877991494
( -0.04827459701659214 0.013025485936641063  0 ) // theta value 0.2635447170511438
( -0.048251789740110046 0.013109721121221881  0 ) // theta value 0.2652900463031381
( -0.04822883548030837 0.013193916371318613  0 ) // theta value 0.26703537555513246
( -0.04820573430710974 0.013278071430457927  0 ) // theta value 0.26878070480712674
( -0.04818248629088436 0.013362186042288922  0 ) // theta value 0.27052603405912107
( -0.04815909150244971 0.013446259950583904  0 ) // theta value 0.27227136331111546
( -0.04813555001307037 0.013530292899239158  0 ) // theta value 0.27401669256310973
( -0.048111861894457805 0.013614284632275759  0 ) // theta value 0.27576202181510406
( -0.04808802721877012 0.013698234893840316  0 ) // theta value 0.2775073510670984
( -0.048064046058611885 0.013782143428205777  0 ) // theta value 0.2792526803190927
( -0.048039918487033866 0.013866009979772194  0 ) // theta value 0.28099800957108706
( -0.04801564457753284 0.013949834293067504  0 ) // theta value 0.2827433388230814
( -0.047991224404051326 0.014033616112748313  0 ) // theta value 0.2844886680750757
( -0.04796665804097742 0.014117355183600667  0 ) // theta value 0.28623399732707006
( -0.047941945563144524 0.014201051250540837  0 ) // theta value 0.2879793265790644
( -0.047917087045831135 0.014284704058616083  0 ) // theta value 0.2897246558310587
( -0.047892082564760595 0.014368313353005448  0 ) // theta value 0.291469985083053
( -0.0478669321961009 0.014451878879020526  0 ) // theta value 0.2932153143350474
( -0.047841636016464434 0.014535400382106224  0 ) // theta value 0.2949606435870417
( -0.04781619410290774 0.014618877607841562  0 ) // theta value 0.29670597283903605
( -0.04779060653293131 0.014702310301940434  0 ) // theta value 0.2984513020910304
( -0.04776487338447931 0.014785698210252378  0 ) // theta value 0.30019663134302466
( -0.04773899473593938 0.014869041078763379  0 ) // theta value 0.30194196059501904
( -0.047712970666142364 0.014952338653596593  0 ) // theta value 0.3036872898470134
( -0.0476868012543621 0.01503559068101316  0 ) // theta value 0.30543261909900765
( -0.047660486580315145 0.015118796907412977  0 ) // theta value 0.30717794835100204
( -0.047634026724160575 0.01520195707933544  0 ) // theta value 0.3089232776029963
( -0.04760742176649968 0.015285070943460247  0 ) // theta value 0.31066860685499065
( -0.04758067178837579 0.015368138246608156  0 ) // theta value 0.31241393610698504
( -0.047553776871273976 0.015451158735741747  0 ) // theta value 0.3141592653589793
( -0.04752673709712082 0.015534132157966224  0 ) // theta value 0.3159045946109737
( -0.047499552548284155 0.01561705826053014  0 ) // theta value 0.317649923862968
( -0.047472223307572836 0.015699936790826215  0 ) // theta value 0.3193952531149623
( -0.04744474945823648 0.015782767496392073  0 ) // theta value 0.3211405823669567
( -0.047417131083965176 0.015865550124911015  0 ) // theta value 0.32288591161895097
( -0.047389368268889294 0.015948284424212797  0 ) // theta value 0.3246312408709453
( -0.04736146109757919 0.0160309701422744  0 ) // theta value 0.32637657012293964
( -0.04733340965504494 0.016113607027220787  0 ) // theta value 0.32812189937493397
( -0.0473052140267361 0.01619619482732567  0 ) // theta value 0.3298672286269283
( -0.047276874298541445 0.016278733291012294  0 ) // theta value 0.33161255787892263
( -0.04724839055678871 0.016361222166854174  0 ) // theta value 0.33335788713091696
( -0.04721976288824429 0.0164436612035759  0 ) // theta value 0.3351032163829113
( -0.04719099138011306 0.01652605015005387  0 ) // theta value 0.3368485456349056
( -0.047162076120038 0.01660838875531705  0 ) // theta value 0.33859387488689996
( -0.04713301719610002 0.01669067676854778  0 ) // theta value 0.34033920413889424
( -0.047103814696817625 0.016772913939082503  0 ) // theta value 0.3420845333908886
( -0.04707446871114671 0.016855100016412532  0 ) // theta value 0.34382986264288296
( -0.04704497932848023 0.01693723475018482  0 ) // theta value 0.3455751918948773
( -0.04701534663864796 0.017019317890202723  0 ) // theta value 0.3473205211468716
( -0.04698557073191621 0.01710134918642676  0 ) // theta value 0.3490658503988659
( -0.04695565169898755 0.01718332838897539  0 ) // theta value 0.3508111796508603
( -0.04692558963100056 0.017265255248125735  0 ) // theta value 0.3525565089028546
( -0.046895384619529495 0.017347129514314368  0 ) // theta value 0.3543018381548489
( -0.046865036756584065 0.017428950938138087  0 ) // theta value 0.3560471674068433
( -0.04683454613460913 0.017510719270354632  0 ) // theta value 0.35779249665883756
( -0.046803912846484406 0.017592434261883498  0 ) // theta value 0.3595378259108319
( -0.0467731369855242 0.01767409566380664  0 ) // theta value 0.3612831551628263
( -0.04674221864547712 0.017755703227369263  0 ) // theta value 0.36302848441482055
( -0.0467111579205258 0.01783725670398058  0 ) // theta value 0.36477381366681494
( -0.046679954905286584 0.01791875584521456  0 ) // theta value 0.3665191429188092
( -0.04664860969480928 0.01800020040281068  0 ) // theta value 0.36826447217080355
( -0.046617122384576826 0.0180815901286747  0 ) // theta value 0.37000980142279793
( -0.04658549307050503 0.018162924774879394  0 ) // theta value 0.3717551306747922
( -0.04655372184894228 0.018244204093665322  0 ) // theta value 0.37350045992678654
( -0.046521808816669216 0.01832542783744159  0 ) // theta value 0.3752457891787809
( -0.04648975407089846 0.018406595758786583  0 ) // theta value 0.3769911184307752
( -0.046457557709274344 0.018487707610448743  0 ) // theta value 0.37873644768276954
( -0.04642521982987256 0.018568763145347292  0 ) // theta value 0.38048177693476387
( -0.046392740531199905 0.018649762116573026  0 ) // theta value 0.3822271061867582
( -0.046360119912193944 0.01873070427738902  0 ) // theta value 0.3839724354387525
( -0.04632735807222274 0.01881158938123142  0 ) // theta value 0.38571776469074687
( -0.04629445511108455 0.01889241718171018  0 ) // theta value 0.3874630939427412
( -0.046261411129007494 0.018973187432609784  0 ) // theta value 0.3892084231947355
( -0.04622822622664927 0.01905389988789006  0 ) // theta value 0.39095375244672986
( -0.04619490050509685 0.019134554301686854  0 ) // theta value 0.39269908169872414
( -0.04616143406586616 0.01921515042831285  0 ) // theta value 0.3944444109507185
( -0.046127827010901776 0.019295688022258256  0 ) // theta value 0.39618974020271286
( -0.04609407944257662 0.019376166838191603  0 ) // theta value 0.39793506945470714
( -0.04606019146369163 0.019456586630960455  0 ) // theta value 0.3996803987067015
( -0.046026163177475474 0.01953694715559218  0 ) // theta value 0.4014257279586958
( -0.045991994687584206 0.01961724816729468  0 ) // theta value 0.40317105721069013
( -0.045957686098100976 0.01969748942145715  0 ) // theta value 0.4049163864626845
( -0.045923237513535706 0.019777670673650813  0 ) // theta value 0.4066617157146788
( -0.045888649038824746 0.019857791679629668  0 ) // theta value 0.4084070449666731
( -0.04585392077933059 0.019937852195331236  0 ) // theta value 0.41015237421866746
( -0.04581905284084155 0.020017851976877308  0 ) // theta value 0.4118977034706618
( -0.04578404532957139 0.020097790780574668  0 ) // theta value 0.4136430327226562
( -0.04574889835215909 0.020177668362915856  0 ) // theta value 0.41538836197465046
( -0.04571361201566842 0.02025748448057991  0 ) // theta value 0.4171336912266448
( -0.04567818642758769 0.02033723889043309  0 ) // theta value 0.4188790204786391
( -0.04564262169582938 0.02041693134952963  0 ) // theta value 0.42062434973063345
( -0.045606917928729826 0.02049656161511248  0 ) // theta value 0.4223696789826278
( -0.045571075235048907 0.02057612944461405  0 ) // theta value 0.4241150082346221
( -0.04553509372396967 0.02065563459565692  0 ) // theta value 0.42586033748661645
( -0.04549897350509804 0.020735076826054608  0 ) // theta value 0.4276056667386107
( -0.045462714688462476 0.020814455893812322  0 ) // theta value 0.4293509959906051
( -0.045426317384513616 0.02089377155712764  0 ) // theta value 0.43109632524259944
( -0.04538978170412397 0.020973023574391302  0 ) // theta value 0.4328416544945937
( -0.045353107758587544 0.021052211704187924  0 ) // theta value 0.4345869837465881
( -0.04531629565961954 0.021131335705296714  0 ) // theta value 0.4363323129985824
( -0.045279345519355994 0.021210395336692257  0 ) // theta value 0.4380776422505767
( -0.04524225745035344 0.021289390357545204  0 ) // theta value 0.4398229715025711
( -0.04520503156558858 0.021368320527223008  0 ) // theta value 0.4415683007545654
( -0.04516766797845791 0.0214471856052907  0 ) // theta value 0.44331363000655977
( -0.045130166802777386 0.021525985351511567  0 ) // theta value 0.44505895925855404
( -0.0450925281527821 0.02160471952584792  0 ) // theta value 0.4468042885105484
( -0.045054752143125903 0.02168338788846181  0 ) // theta value 0.44854961776254276
( -0.04501683888888108 0.02176199019971575  0 ) // theta value 0.45029494701453704
( -0.04497878850553797 0.02184052622017348  0 ) // theta value 0.45204027626653137
( -0.044940601109004656 0.021918995710600662  0 ) // theta value 0.4537856055185257
( -0.044902276815606545 0.021997398431965614  0 ) // theta value 0.45553093477052004
( -0.044863815742086095 0.022075734145440052  0 ) // theta value 0.45727626402251437
( -0.044825218005602414 0.022154002612399814  0 ) // theta value 0.4590215932745087
( -0.04478648372373089 0.022232203594425563  0 ) // theta value 0.46076692252650303
( -0.04474761301446286 0.02231033685330355  0 ) // theta value 0.4625122517784973
( -0.04470860599620525 0.022388402151026325  0 ) // theta value 0.4642575810304917
( -0.04466946278778021 0.022466399249793448  0 ) // theta value 0.466002910282486
( -0.04463018350842473 0.02254432791201223  0 ) // theta value 0.4677482395344803
( -0.044590768277790314 0.022622187900298452  0 ) // theta value 0.4694935687864747
( -0.04455121721594259 0.022699978977477078  0 ) // theta value 0.47123889803846897
( -0.04451153044336094 0.022777700906583015  0 ) // theta value 0.47298422729046335
( -0.04447170808093817 0.022855353450861773  0 ) // theta value 0.4747295565424577
( -0.0444317502499801 0.022932936373770235  0 ) // theta value 0.47647488579445196
( -0.04439165707220521 0.02301044943897737  0 ) // theta value 0.47822021504644635
( -0.044351428669744265 0.023087892410364932  0 ) // theta value 0.4799655442984406
( -0.04431106516513997 0.02316526505202821  0 ) // theta value 0.48171087355043496
( -0.044270566681346546 0.02324256712827671  0 ) // theta value 0.48345620280242935
( -0.044229933341729415 0.023319798403634903  0 ) // theta value 0.4852015320544236
( -0.044189165270064765 0.02339695864284293  0 ) // theta value 0.48694686130641796
( -0.04414826259053921 0.023474047610857328  0 ) // theta value 0.4886921905584123
( -0.04410722542774941 0.02355106507285172  0 ) // theta value 0.4904375198104066
( -0.04406605390670168 0.023628010794217575  0 ) // theta value 0.492182849062401
( -0.04402474815281161 0.023704884540564863  0 ) // theta value 0.4939281783143953
( -0.043983308291903694 0.023781686077722835  0 ) // theta value 0.4956735075663896
( -0.043941734450210934 0.02385841517174068  0 ) // theta value 0.49741883681838395
( -0.04390002675437446 0.023935071588888284  0 ) // theta value 0.4991641660703783
( -0.043858185331443145 0.024011655095656892  0 ) // theta value 0.5009094953223726
( -0.04381621030887323 0.02408816545875987  0 ) // theta value 0.5026548245743669
( -0.0437741018145279 0.024164602445133375  0 ) // theta value 0.5044001538263613
( -0.04373185997667693 0.0242409658219371  0 ) // theta value 0.5061454830783556
( -0.0436894849239963 0.02431725535655495  0 ) // theta value 0.5078908123303499
( -0.043646976785567754 0.024393470816595774  0 ) // theta value 0.5096361415823443
( -0.04360433569087847 0.024469611969894063  0 ) // theta value 0.5113814708343386
( -0.043561561769820595 0.02454567858451066  0 ) // theta value 0.5131268000863329
( -0.043518655152690926 0.024621670428733464  0 ) // theta value 0.5148721293383273
( -0.04347561597019046 0.024697587271078136  0 ) // theta value 0.5166174585903216
( -0.043432444353424 0.024773428880288814  0 ) // theta value 0.5183627878423159
( -0.04338914043389979 0.024849195025338798  0 ) // theta value 0.5201081170943103
( -0.04334570434352908 0.024924885475431275  0 ) // theta value 0.5218534463463046
( -0.043302136214625725 0.0250005  0 ) // theta value 0.5235987755982988
( -0.043258436179905796 0.02507603836871003  0 ) // theta value 0.5253441048502933
( -0.04321460437248719 0.025151500351458387  0 ) // theta value 0.5270894341022876
( -0.043170640925889195 0.02522688571837478  0 ) // theta value 0.5288347633542818
( -0.043126545974032086 0.025302194239822315  0 ) // theta value 0.5305800926062763
( -0.04308231965123674 0.025377425686398166  0 ) // theta value 0.5323254218582705
( -0.04303796209222419 0.025452579828934317  0 ) // theta value 0.5340707511102649
( -0.04299347343211527 0.025527656438498202  0 ) // theta value 0.5358160803622593
( -0.042948853806430154 0.025602655286393446  0 ) // theta value 0.5375614096142535
( -0.04290410335108795 0.025677576144160566  0 ) // theta value 0.5393067388662479
( -0.04285922220240632 0.02575241878357762  0 ) // theta value 0.5410520681182421
( -0.04281421049710101 0.02582718297666096  0 ) // theta value 0.5427973973702365
( -0.042769068372285494 0.02590186849566589  0 ) // theta value 0.5445427266222309
( -0.04272379596547051 0.02597647511308735  0 ) // theta value 0.5462880558742251
( -0.04267839341456365 0.02605100260166066  0 ) // theta value 0.5480333851262195
( -0.042632860857868965 0.02612545073436216  0 ) // theta value 0.5497787143782138
( -0.04258719843408653 0.02619981928440993  0 ) // theta value 0.5515240436302081
( -0.04254140628231198 0.02627410802526447  0 ) // theta value 0.5532693728822026
( -0.04249548454203619 0.02634831673062938  0 ) // theta value 0.5550147021341968
( -0.04244943335314471 0.02642244517445208  0 ) // theta value 0.5567600313861911
( -0.04240325285591746 0.02649649313092448  0 ) // theta value 0.5585053606381855
( -0.04235694319102824 0.026570460374483663  0 ) // theta value 0.5602506898901798
( -0.04231050449954433 0.02664434667981257  0 ) // theta value 0.5619960191421741
( -0.04226393692292603 0.026718151821840716  0 ) // theta value 0.5637413483941686
( -0.04221724060302626 0.026791875575744813  0 ) // theta value 0.5654866776461628
( -0.0421704156820901 0.026865517716949543  0 ) // theta value 0.5672320068981571
( -0.04212346230275439 0.02693907802112816  0 ) // theta value 0.5689773361501514
( -0.042076380608047255 0.027012556264203232  0 ) // theta value 0.5707226654021458
( -0.04202917074138771 0.027085952222347276  0 ) // theta value 0.5724679946541401
( -0.041981832846585194 0.027159265671983485  0 ) // theta value 0.5742133239061344
( -0.04193436706783915 0.02723249638978637  0 ) // theta value 0.5759586531581288
( -0.04188677354973856 0.02730564415268247  0 ) // theta value 0.5777039824101231
( -0.04183905243726154 0.027378708737851008  0 ) // theta value 0.5794493116621174
( -0.04179120387577488 0.02745168992272459  0 ) // theta value 0.5811946409141118
( -0.0417432280110336 0.02752458748498986  0 ) // theta value 0.582939970166106
( -0.04169512498918048 0.02759740120258822  0 ) // theta value 0.5846852994181004
( -0.041646894956745686 0.02767013085371645  0 ) // theta value 0.5864306286700948
( -0.041598538060646256 0.027742776216827417  0 ) // theta value 0.5881759579220891
( -0.041550054448185686 0.027815337070630743  0 ) // theta value 0.5899212871740834
( -0.041501444267053475 0.027887813194093485  0 ) // theta value 0.5916666164260777
( -0.04145270766532464 0.027960204366440818  0 ) // theta value 0.5934119456780721
( -0.041403844791459345 0.028032510367156652  0 ) // theta value 0.5951572749300664
( -0.04135485579430237 0.028104730975984385  0 ) // theta value 0.5969026041820608
( -0.04130574082308269 0.028176865972927515  0 ) // theta value 0.5986479334340551
( -0.04125650002741304 0.02824891513825032  0 ) // theta value 0.6003932626860493
( -0.04120713355728941 0.02832087825247857  0 ) // theta value 0.6021385919380436
( -0.04115764156309063 0.02839275509640012  0 ) // theta value 0.6038839211900381
( -0.04110802419557791 0.028464545451065644  0 ) // theta value 0.6056292504420324
( -0.04105828160589434 0.028536249097789273  0 ) // theta value 0.6073745796940268
( -0.04100841394556448 0.028607865818149256  0 ) // theta value 0.609119908946021
( -0.04095842136649388 0.028679395393988654  0 ) // theta value 0.6108652381980153
( -0.0409083040209686 0.028750837607415973  0 ) // theta value 0.6126105674500097