/*--------------------------------*- C++ -*----------------------------------*\
| ========= | |
| \\ / F ield | OpenFOAM: The Open Source CFD Toolbox |
| \\ / O peration | Version: 2.4.0 |
| \\ / A nd | Web: www.OpenFOAM.org |
| \\/ M anipulation | |
\*---------------------------------------------------------------------------*/
FoamFile
{
 version 2.0;
 format ascii;
 class volScalarField;
 object p_rgh;
}
// * * * * * * * * * * * * * * * * * * * * * * * * * * * * * * * * * * * * * //
dimensions [1 -1 -2 0 0 0 0];
internalField uniform 0.7;
boundaryField
{
 top
 {
 type symmetryPlane;
 }
 bottom
 {
 type symmetryPlane;
 }
 inlet
 {
 type zeroGradient;
//  value uniform 10;
 }
 outlet
 {
	// type zeroGradient;
 type zeroGradient;
//  value uniform 10;
 }
 frontAndBack
 {
 type empty;
 }
 cylinder
 {
 type zeroGradient;
 }
}
// ************************************************************************* //